! B3LYP D4 def2-TZVP Opt freq

%pal
  nprocs=8
end

%geom
   MaxIter 300
end

%maxcore 300

* xyz 0 1
C    -3.312784000000      9.044514000000     -0.807918000000
C    -2.726905000000      7.746228000000     -0.245087000000
C    -1.510237000000      7.975621000000      0.643421000000
C    -0.544440000000      8.943506000000     -0.030393000000
O    -1.173857000000     10.144891000000     -0.434410000000
C    -2.194644000000      9.906393000000     -1.401775000000
O     0.426696000000      9.280879000000      0.917990000000
C     1.881552000000     11.054168000000      1.489097000000
*                                    